<?xml version="1.0" encoding="UTF-8"?>

<!-- generated on 2024-01-01 14:47:24 by Eclipse SUMO netedit Version v1_19_0+0542-079423a4382
<configuration xmlns:xsi="http://www.w3.org/2001/XMLSchema-instance" xsi:noNamespaceSchemaLocation="http://sumo.dlr.de/xsd/neteditConfiguration.xsd">

    <input>
        <sumo-net-file value="/home/aspireatlas/sumo/bin/demo.net.xml"/>
    </input>

    <output>
        <output-file value="/home/aspireatlas/sumo/bin/demo.net.xml"/>
    </output>

    <processing>
        <offset.disable-normalization value="true"/>
    </processing>

    <junctions>
        <no-turnarounds value="true"/>
    </junctions>

    <netedit>
        <new-network value="false"/>
    </netedit>

</configuration>
-->

<net version="1.16" junctionCornerDetail="5" limitTurnSpeed="5.50" xmlns:xsi="http://www.w3.org/2001/XMLSchema-instance" xsi:noNamespaceSchemaLocation="http://sumo.dlr.de/xsd/net_file.xsd">

    <location netOffset="0.00,0.00" convBoundary="-8.15,25.70,83.57,86.80" origBoundary="10000000000.00,10000000000.00,-10000000000.00,-10000000000.00" projParameter="!"/>

    <edge id=":J1_0" function="internal">
        <lane id=":J1_0_0" index="0" speed="6.50" length="9.03" shape="40.68,64.65 40.33,62.20 39.27,60.45 37.52,59.41 35.07,59.06"/>
    </edge>
    <edge id=":J1_1" function="internal">
        <lane id=":J1_1_0" index="0" speed="13.89" length="14.45" shape="40.68,64.65 40.74,50.20"/>
    </edge>
    <edge id=":J1_2" function="internal">
        <lane id=":J1_2_0" index="0" speed="8.01" length="4.10" shape="40.68,64.65 41.23,60.80 41.33,60.62"/>
    </edge>
    <edge id=":J1_12" function="internal">
        <lane id=":J1_12_0" index="0" speed="8.01" length="10.12" shape="41.33,60.62 42.88,58.05 45.64,56.39 49.50,55.84"/>
    </edge>
    <edge id=":J1_3" function="internal">
        <lane id=":J1_3_0" index="0" speed="6.52" length="9.06" shape="49.50,59.04 47.04,59.39 45.28,60.45 44.23,62.20 43.88,64.65"/>
    </edge>
    <edge id=":J1_4" function="internal">
        <lane id=":J1_4_0" index="0" speed="13.89" length="14.43" shape="49.50,59.04 35.07,59.06"/>
    </edge>
    <edge id=":J1_5" function="internal">
        <lane id=":J1_5_0" index="0" speed="7.99" length="4.06" shape="49.50,59.04 45.64,58.49 45.50,58.41"/>
    </edge>
    <edge id=":J1_13" function="internal">
        <lane id=":J1_13_0" index="0" speed="7.99" length="10.16" shape="45.50,58.41 42.89,56.83 41.26,54.07 40.74,50.20"/>
    </edge>
    <edge id=":J1_6" function="internal">
        <lane id=":J1_6_0" index="0" speed="6.49" length="9.03" shape="43.94,50.23 44.27,52.69 45.31,54.44 47.05,55.49 49.50,55.84"/>
    </edge>
    <edge id=":J1_7" function="internal">
        <lane id=":J1_7_0" index="0" speed="13.89" length="14.42" shape="43.94,50.23 43.88,64.65"/>
    </edge>
    <edge id=":J1_8" function="internal">
        <lane id=":J1_8_0" index="0" speed="8.05" length="4.05" shape="43.94,50.23 43.36,54.09 43.28,54.21"/>
    </edge>
    <edge id=":J1_14" function="internal">
        <lane id=":J1_14_0" index="0" speed="8.05" length="10.19" shape="43.28,54.21 41.68,56.84 38.92,58.50 35.07,59.06"/>
    </edge>
    <edge id=":J1_9" function="internal">
        <lane id=":J1_9_0" index="0" speed="6.56" length="9.12" shape="35.06,55.86 37.53,55.50 39.29,54.44 40.37,52.67 40.74,50.20"/>
    </edge>
    <edge id=":J1_10" function="internal">
        <lane id=":J1_10_0" index="0" speed="13.89" length="14.44" shape="35.06,55.86 49.50,55.84"/>
    </edge>
    <edge id=":J1_11" function="internal">
        <lane id=":J1_11_0" index="0" speed="8.00" length="4.08" shape="35.06,55.86 38.92,56.40 39.08,56.50"/>
    </edge>
    <edge id=":J1_15" function="internal">
        <lane id=":J1_15_0" index="0" speed="8.00" length="10.12" shape="39.08,56.50 41.67,58.05 43.32,60.80 43.88,64.65"/>
    </edge>

    <edge id="-E0" from="J1" to="J0" priority="-1">
        <lane id="-E0_0" index="0" speed="13.89" length="43.21" shape="35.07,59.06 -8.14,59.18"/>
    </edge>
    <edge id="-E1" from="J2" to="J1" priority="-1">
        <lane id="-E1_0" index="0" speed="13.89" length="34.06" shape="83.57,59.04 49.50,59.04"/>
    </edge>
    <edge id="-E2" from="J3" to="J1" priority="-1">
        <lane id="-E2_0" index="0" speed="13.89" length="24.51" shape="44.16,25.72 43.94,50.23"/>
    </edge>
    <edge id="-E3" from="J4" to="J1" priority="-1">
        <lane id="-E3_0" index="0" speed="13.89" length="22.15" shape="40.68,86.80 40.68,64.65"/>
    </edge>
    <edge id="E0" from="J0" to="J1" priority="-1">
        <lane id="E0_0" index="0" speed="13.89" length="43.21" shape="-8.15,55.98 35.06,55.86"/>
    </edge>
    <edge id="E1" from="J1" to="J2" priority="-1">
        <lane id="E1_0" index="0" speed="13.89" length="34.06" shape="49.50,55.84 83.57,55.84"/>
    </edge>
    <edge id="E2" from="J1" to="J3" priority="-1">
        <lane id="E2_0" index="0" speed="13.89" length="24.51" shape="40.74,50.20 40.96,25.69"/>
    </edge>
    <edge id="E3" from="J1" to="J4" priority="-1">
        <lane id="E3_0" index="0" speed="13.89" length="22.15" shape="43.88,64.65 43.88,86.80"/>
    </edge>

    <tlLogic id="J1" type="static" programID="0" offset="0">
        <phase duration="62" state="rrrGGgrrrGGg"/>
        <phase duration="13" state="rrryyyrrryyy"/>
        <phase duration="62" state="GGgrrrGGgrrr"/>
        <phase duration="13" state="yyyrrryyyrrr"/>
    </tlLogic>

    <junction id="J0" type="dead_end" x="-8.15" y="57.58" incLanes="-E0_0" intLanes="" shape="-8.15,57.58 -8.14,60.78 -8.15,57.58"/>
    <junction id="J1" type="traffic_light" x="42.28" y="57.44" incLanes="-E3_0 -E1_0 -E2_0 E0_0" intLanes=":J1_0_0 :J1_1_0 :J1_12_0 :J1_3_0 :J1_4_0 :J1_13_0 :J1_6_0 :J1_7_0 :J1_14_0 :J1_9_0 :J1_10_0 :J1_15_0" shape="39.08,64.65 45.48,64.65 45.92,62.43 46.48,61.65 47.27,61.09 48.27,60.76 49.50,60.64 49.50,54.24 47.29,53.80 46.51,53.24 45.96,52.47 45.64,51.47 45.54,50.24 39.14,50.19 38.67,52.45 38.10,53.24 37.31,53.81 36.29,54.15 35.06,54.26 35.08,60.66 37.30,61.10 38.08,61.66 38.63,62.43 38.96,63.43">
        <request index="0"  response="000000010000" foes="000100010000" cont="0"/>
        <request index="1"  response="111000110000" foes="111100110000" cont="0"/>
        <request index="2"  response="110011110000" foes="110111110000" cont="1"/>
        <request index="3"  response="000000000000" foes="100010000000" cont="0"/>
        <request index="4"  response="000100000100" foes="100110000111" cont="0"/>
        <request index="5"  response="111100000100" foes="111110000110" cont="1"/>
        <request index="6"  response="010000000000" foes="010000000100" cont="0"/>
        <request index="7"  response="110000111000" foes="110000111100" cont="0"/>
        <request index="8"  response="110000110111" foes="110000110111" cont="1"/>
        <request index="9"  response="000000000000" foes="000000100010" cont="0"/>
        <request index="10" response="000100000100" foes="000111100110" cont="0"/>
        <request index="11" response="000100011100" foes="000110111110" cont="1"/>
    </junction>
    <junction id="J2" type="dead_end" x="83.57" y="57.44" incLanes="E1_0" intLanes="" shape="83.57,57.44 83.57,54.24 83.57,57.44"/>
    <junction id="J3" type="dead_end" x="42.56" y="25.70" incLanes="E2_0" intLanes="" shape="42.56,25.70 39.36,25.67 42.56,25.70"/>
    <junction id="J4" type="dead_end" x="42.28" y="86.80" incLanes="E3_0" intLanes="" shape="42.28,86.80 45.48,86.80 42.28,86.80"/>

    <junction id=":J1_12_0" type="internal" x="41.33" y="60.62" incLanes=":J1_2_0 -E2_0" intLanes=":J1_4_0 :J1_5_0 :J1_6_0 :J1_7_0 :J1_10_0 :J1_11_0"/>
    <junction id=":J1_13_0" type="internal" x="45.50" y="58.41" incLanes=":J1_5_0 E0_0" intLanes=":J1_1_0 :J1_2_0 :J1_7_0 :J1_8_0 :J1_9_0 :J1_10_0"/>
    <junction id=":J1_14_0" type="internal" x="43.28" y="54.21" incLanes=":J1_8_0 -E3_0" intLanes=":J1_0_0 :J1_1_0 :J1_4_0 :J1_5_0 :J1_10_0 :J1_11_0"/>
    <junction id=":J1_15_0" type="internal" x="39.08" y="56.50" incLanes=":J1_11_0 -E1_0" intLanes=":J1_1_0 :J1_2_0 :J1_3_0 :J1_4_0 :J1_7_0 :J1_8_0"/>

    <connection from="-E1" to="E3" fromLane="0" toLane="0" via=":J1_3_0" tl="J1" linkIndex="3" dir="r" state="O"/>
    <connection from="-E1" to="-E0" fromLane="0" toLane="0" via=":J1_4_0" tl="J1" linkIndex="4" dir="s" state="O"/>
    <connection from="-E1" to="E2" fromLane="0" toLane="0" via=":J1_5_0" tl="J1" linkIndex="5" dir="l" state="o"/>
    <connection from="-E2" to="E1" fromLane="0" toLane="0" via=":J1_6_0" tl="J1" linkIndex="6" dir="r" state="o"/>
    <connection from="-E2" to="E3" fromLane="0" toLane="0" via=":J1_7_0" tl="J1" linkIndex="7" dir="s" state="o"/>
    <connection from="-E2" to="-E0" fromLane="0" toLane="0" via=":J1_8_0" tl="J1" linkIndex="8" dir="l" state="o"/>
    <connection from="-E3" to="-E0" fromLane="0" toLane="0" via=":J1_0_0" tl="J1" linkIndex="0" dir="r" state="o"/>
    <connection from="-E3" to="E2" fromLane="0" toLane="0" via=":J1_1_0" tl="J1" linkIndex="1" dir="s" state="o"/>
    <connection from="-E3" to="E1" fromLane="0" toLane="0" via=":J1_2_0" tl="J1" linkIndex="2" dir="l" state="o"/>
    <connection from="E0" to="E2" fromLane="0" toLane="0" via=":J1_9_0" tl="J1" linkIndex="9" dir="r" state="O"/>
    <connection from="E0" to="E1" fromLane="0" toLane="0" via=":J1_10_0" tl="J1" linkIndex="10" dir="s" state="O"/>
    <connection from="E0" to="E3" fromLane="0" toLane="0" via=":J1_11_0" tl="J1" linkIndex="11" dir="l" state="o"/>

    <connection from=":J1_0" to="-E0" fromLane="0" toLane="0" dir="r" state="M"/>
    <connection from=":J1_1" to="E2" fromLane="0" toLane="0" dir="s" state="M"/>
    <connection from=":J1_2" to="E1" fromLane="0" toLane="0" via=":J1_12_0" dir="l" state="m"/>
    <connection from=":J1_12" to="E1" fromLane="0" toLane="0" dir="l" state="M"/>
    <connection from=":J1_3" to="E3" fromLane="0" toLane="0" dir="r" state="M"/>
    <connection from=":J1_4" to="-E0" fromLane="0" toLane="0" dir="s" state="M"/>
    <connection from=":J1_5" to="E2" fromLane="0" toLane="0" via=":J1_13_0" dir="l" state="m"/>
    <connection from=":J1_13" to="E2" fromLane="0" toLane="0" dir="l" state="M"/>
    <connection from=":J1_6" to="E1" fromLane="0" toLane="0" dir="r" state="M"/>
    <connection from=":J1_7" to="E3" fromLane="0" toLane="0" dir="s" state="M"/>
    <connection from=":J1_8" to="-E0" fromLane="0" toLane="0" via=":J1_14_0" dir="l" state="m"/>
    <connection from=":J1_14" to="-E0" fromLane="0" toLane="0" dir="l" state="M"/>
    <connection from=":J1_9" to="E2" fromLane="0" toLane="0" dir="r" state="M"/>
    <connection from=":J1_10" to="E1" fromLane="0" toLane="0" dir="s" state="M"/>
    <connection from=":J1_11" to="E3" fromLane="0" toLane="0" via=":J1_15_0" dir="l" state="m"/>
    <connection from=":J1_15" to="E3" fromLane="0" toLane="0" dir="l" state="M"/>

</net>
